*SPEF "IEEE 1481-1998"
*DESIGN "ensc450"
*DATE "Tue Apr 20 18:55:32 2021"
*VENDOR "Cadence Design Systems, Inc."
*PROGRAM "Innovus"
*VERSION "18.10-p002_1"
*DESIGN_FLOW "COUPLING C" "PIN_CAP NONE" "NAME_SCOPE LOCAL"
*DIVIDER /
*DELIMITER :
*BUS_DELIMITER []
*T_UNIT 1 NS
*C_UNIT 1 PF
*R_UNIT 1 OHM
*L_UNIT 1 HENRY

// MMMC spef file for corner 'nangate45nm_caps'

*NAME_MAP

*1 My_bus/FE_OFN115_YOUR_RDATABUS_18
*2 FE_OFN114_YOUR_RDATABUS_19
*3 My_bus/FE_OFN114_YOUR_RDATABUS_22
*4 FE_OFN109_SRAM_WDATABUS_15
*5 FE_OFN108_SRAM_WDATABUS_16
*6 FE_OFN106_SRAM_WDATABUS_18
*7 FE_OFN105_SRAM_WDATABUS_19
*8 FE_OFN104_SRAM_WDATABUS_20
*9 FE_OFN103_SRAM_WDATABUS_21
*10 FE_OFN102_SRAM_WDATABUS_22
*11 FE_OFN101_SRAM_WDATABUS_23
*12 FE_OFN100_SRAM_WDATABUS_24
*13 My_bus/FE_OFN99_n99
*14 My_bus/FE_OFN98_n98
*15 My_bus/FE_OFN97_n88
*16 My_bus/FE_OFN94_n76
*17 My_bus/FE_OFN93_n75
*18 My_bus/FE_OFN92_n74
*19 My_bus/FE_OFN91_n73
*20 My_bus/FE_OFN90_n72
*21 My_bus/FE_OFN89_n71
*22 FE_OFN88_YOUR_WDATABUS_2
*23 FE_OFN87_YOUR_WDATABUS_3
*24 FE_OFN86_YOUR_WDATABUS_4
*25 FE_OFN85_YOUR_WDATABUS_28
*26 my_Counter/FE_OFN84_n366
*27 my_Counter/FE_OFN83_n365
*28 my_Counter/FE_OFN82_n364
*29 my_Counter/FE_OFN81_n233
*30 my_Counter/FE_OFN80_n183
*31 my_Counter/FE_OFN79_n132
*32 my_Counter/FE_OFN78_n50
*33 My_bus/FE_OFN77_n110
*34 My_bus/FE_OFN76_n106
*35 My_bus/FE_OFN75_n67
*36 My_bus/FE_OFN74_n66
*37 My_bus/FE_OFN73_n65
*38 My_bus/FE_OFN72_n64
*39 My_bus/FE_OFN71_n63
*40 My_bus/FE_OFN70_n62
*41 My_bus/FE_OFN69_n61
*42 My_bus/FE_OFN68_n60
*43 My_bus/FE_OFN67_n59
*44 My_bus/FE_OFN66_n58
*45 My_bus/FE_OFN65_n57
*46 My_bus/FE_OFN64_n56
*47 My_bus/FE_OFN63_n55
*48 My_bus/FE_OFN62_n54
*49 My_bus/FE_OFN61_n53
*50 My_bus/FE_OFN60_n52
*51 My_bus/FE_OFN59_n51
*52 My_bus/FE_OFN58_n50
*53 My_bus/FE_OFN57_n49
*54 My_bus/FE_OFN56_n48
*55 My_bus/FE_OFN55_n47
*56 My_bus/FE_OFN54_n46
*57 My_bus/FE_OFN53_n45
*58 My_bus/FE_OFN52_n44
*59 My_bus/FE_OFN51_n43
*60 My_bus/FE_OFN50_n42
*61 My_bus/FE_OFN49_n41
*62 My_bus/FE_OFN48_n40
*63 My_bus/FE_OFN47_n39
*64 My_bus/FE_OFN46_n38
*65 My_bus/FE_OFN45_n37
*66 My_bus/FE_OFN44_n35
*67 My_bus/FE_OFN41_YOUR_RDATABUS_23
*68 My_bus/FE_OFN40_YOUR_RDATABUS_24
*69 My_bus/FE_OFN39_YOUR_RDATABUS_25
*70 My_bus/FE_OFN38_YOUR_RDATABUS_26
*71 My_bus/FE_OFN37_YOUR_RDATABUS_27
*72 My_bus/FE_OFN36_YOUR_RDATABUS_28
*73 My_bus/FE_OFN35_YOUR_RDATABUS_29
*74 My_bus/FE_OFN34_YOUR_RDATABUS_30
*75 My_bus/FE_OFN33_YOUR_RDATABUS_31
*76 FE_OFN32_EXT_NREADY
*77 FE_OFN31_EXT_RDATABUS_0
*78 FE_OFN30_EXT_RDATABUS_1
*79 FE_OFN29_EXT_RDATABUS_2
*80 FE_OFN28_EXT_RDATABUS_3
*81 FE_OFN27_EXT_RDATABUS_4
*82 FE_OFN26_EXT_RDATABUS_5
*83 FE_OFN25_EXT_RDATABUS_6
*84 FE_OFN24_EXT_RDATABUS_7
*85 FE_OFN23_EXT_RDATABUS_8
*86 FE_OFN22_EXT_RDATABUS_9
*87 FE_OFN21_EXT_RDATABUS_10
*88 FE_OFN20_EXT_RDATABUS_11
*89 FE_OFN19_EXT_RDATABUS_12
*90 FE_OFN18_EXT_RDATABUS_13
*91 FE_OFN17_EXT_RDATABUS_14
*92 FE_OFN16_EXT_RDATABUS_15
*93 FE_OFN15_EXT_RDATABUS_16
*94 FE_OFN14_EXT_RDATABUS_17
*95 FE_OFN13_EXT_RDATABUS_18
*96 FE_OFN12_EXT_RDATABUS_19
*97 FE_OFN11_EXT_RDATABUS_20
*98 FE_OFN10_EXT_RDATABUS_21
*99 FE_OFN9_EXT_RDATABUS_22
*100 FE_OFN8_EXT_RDATABUS_23
*101 FE_OFN7_EXT_RDATABUS_24
*102 FE_OFN6_EXT_RDATABUS_25
*103 FE_OFN5_EXT_RDATABUS_26
*104 FE_OFN4_EXT_RDATABUS_27
*105 FE_OFN3_EXT_RDATABUS_28
*106 FE_OFN2_EXT_RDATABUS_29
*107 FE_OFN1_EXT_RDATABUS_30
*108 FE_OFN0_EXT_RDATABUS_31
*109 EXT_ADDRBUS[31]
*110 EXT_ADDRBUS[30]
*111 EXT_ADDRBUS[29]
*112 EXT_ADDRBUS[28]
*113 EXT_ADDRBUS[27]
*114 EXT_ADDRBUS[26]
*115 EXT_ADDRBUS[25]
*116 EXT_ADDRBUS[24]
*117 EXT_ADDRBUS[23]
*118 EXT_ADDRBUS[22]
*119 EXT_ADDRBUS[21]
*120 EXT_ADDRBUS[20]
*121 EXT_ADDRBUS[19]
*122 EXT_ADDRBUS[18]
*123 EXT_ADDRBUS[17]
*124 EXT_ADDRBUS[16]
*125 EXT_ADDRBUS[15]
*126 EXT_ADDRBUS[14]
*127 EXT_ADDRBUS[13]
*128 EXT_ADDRBUS[12]
*129 EXT_ADDRBUS[11]
*130 EXT_ADDRBUS[10]
*131 EXT_ADDRBUS[9]
*132 EXT_ADDRBUS[8]
*133 EXT_ADDRBUS[7]
*134 EXT_ADDRBUS[6]
*135 EXT_ADDRBUS[5]
*136 EXT_ADDRBUS[4]
*137 EXT_ADDRBUS[3]
*138 EXT_ADDRBUS[2]
*139 EXT_ADDRBUS[1]
*140 EXT_ADDRBUS[0]
*141 EXT_RDATABUS[31]
*142 EXT_RDATABUS[30]
*143 EXT_RDATABUS[29]
*144 EXT_RDATABUS[28]
*145 EXT_RDATABUS[27]
*146 EXT_RDATABUS[26]
*147 EXT_RDATABUS[25]
*148 EXT_RDATABUS[24]
*149 EXT_RDATABUS[23]
*150 EXT_RDATABUS[22]
*151 EXT_RDATABUS[21]
*152 EXT_RDATABUS[20]
*153 EXT_RDATABUS[19]
*154 EXT_RDATABUS[18]
*155 EXT_RDATABUS[17]
*156 EXT_RDATABUS[16]
*157 EXT_RDATABUS[15]
*158 EXT_RDATABUS[14]
*159 EXT_RDATABUS[13]
*160 EXT_RDATABUS[12]
*161 EXT_RDATABUS[11]
*162 EXT_RDATABUS[10]
*163 EXT_RDATABUS[9]
*164 EXT_RDATABUS[8]
*165 EXT_RDATABUS[7]
*166 EXT_RDATABUS[6]
*167 EXT_RDATABUS[5]
*168 EXT_RDATABUS[4]
*169 EXT_RDATABUS[3]
*170 EXT_RDATABUS[2]
*171 EXT_RDATABUS[1]
*172 EXT_RDATABUS[0]
*173 EXT_WDATABUS[31]
*174 EXT_WDATABUS[30]
*175 EXT_WDATABUS[29]
*176 EXT_WDATABUS[28]
*177 EXT_WDATABUS[27]
*178 EXT_WDATABUS[26]
*179 EXT_WDATABUS[25]
*180 EXT_WDATABUS[24]
*181 EXT_WDATABUS[23]
*182 EXT_WDATABUS[22]
*183 EXT_WDATABUS[21]
*184 EXT_WDATABUS[20]
*185 EXT_WDATABUS[19]
*186 EXT_WDATABUS[18]
*187 EXT_WDATABUS[17]
*188 EXT_WDATABUS[16]
*189 EXT_WDATABUS[15]
*190 EXT_WDATABUS[14]
*191 EXT_WDATABUS[13]
*192 EXT_WDATABUS[12]
*193 EXT_WDATABUS[11]
*194 EXT_WDATABUS[10]
*195 EXT_WDATABUS[9]
*196 EXT_WDATABUS[8]
*197 EXT_WDATABUS[7]
*198 EXT_WDATABUS[6]
*199 EXT_WDATABUS[5]
*200 EXT_WDATABUS[4]
*201 EXT_WDATABUS[3]
*202 EXT_WDATABUS[2]
*203 EXT_WDATABUS[1]
*204 EXT_WDATABUS[0]
*205 clk
*206 resetn
*207 EXT_BUSY
*208 EXT_MR
*209 EXT_MW
*210 EXT_NREADY
*211 SRAM_MR
*212 SRAM_MRN
*213 SRAM_MW
*214 SRAM_MWN
*215 DMAM_MR
*216 DMAM_MW
*217 DMAM_NREADY
*218 YOUR_MR
*219 YOUR_MW
*220 DMAS_BUSY
*221 DMAS_MW
*222 CNT_MR
*223 CNT_MW
*224 DMAM_ADDRBUS[31]
*225 DMAM_ADDRBUS[30]
*226 DMAM_ADDRBUS[29]
*227 DMAM_ADDRBUS[28]
*228 DMAM_ADDRBUS[27]
*229 DMAM_ADDRBUS[26]
*230 DMAM_ADDRBUS[25]
*231 DMAM_ADDRBUS[24]
*232 DMAM_ADDRBUS[23]
*233 DMAM_ADDRBUS[22]
*234 DMAM_ADDRBUS[21]
*235 DMAM_ADDRBUS[20]
*236 DMAM_ADDRBUS[19]
*237 DMAM_ADDRBUS[18]
*238 DMAM_ADDRBUS[17]
*239 DMAM_ADDRBUS[16]
*240 DMAM_ADDRBUS[15]
*241 DMAM_ADDRBUS[14]
*242 DMAM_ADDRBUS[13]
*243 DMAM_ADDRBUS[12]
*244 DMAM_ADDRBUS[11]
*245 DMAM_ADDRBUS[10]
*246 DMAM_ADDRBUS[9]
*247 DMAM_ADDRBUS[8]
*248 DMAM_ADDRBUS[7]
*249 DMAM_ADDRBUS[6]
*250 DMAM_ADDRBUS[5]
*251 DMAM_ADDRBUS[4]
*252 DMAM_ADDRBUS[3]
*253 DMAM_ADDRBUS[2]
*254 DMAM_ADDRBUS[1]
*255 DMAM_ADDRBUS[0]
*256 DMAM_RDATABUS[31]
*257 DMAM_RDATABUS[30]
*258 DMAM_RDATABUS[29]
*259 DMAM_RDATABUS[28]
*260 DMAM_RDATABUS[27]
*261 DMAM_RDATABUS[26]
*262 DMAM_RDATABUS[25]
*263 DMAM_RDATABUS[24]
*264 DMAM_RDATABUS[23]
*265 DMAM_RDATABUS[22]
*266 DMAM_RDATABUS[21]
*267 DMAM_RDATABUS[20]
*268 DMAM_RDATABUS[19]
*269 DMAM_RDATABUS[18]
*270 DMAM_RDATABUS[17]
*271 DMAM_RDATABUS[16]
*272 DMAM_RDATABUS[15]
*273 DMAM_RDATABUS[14]
*274 DMAM_RDATABUS[13]
*275 DMAM_RDATABUS[12]
*276 DMAM_RDATABUS[11]
*277 DMAM_RDATABUS[10]
*278 DMAM_RDATABUS[9]
*279 DMAM_RDATABUS[8]
*280 DMAM_RDATABUS[7]
*281 DMAM_RDATABUS[6]
*282 DMAM_RDATABUS[5]
*283 DMAM_RDATABUS[4]
*284 DMAM_RDATABUS[3]
*285 DMAM_RDATABUS[2]
*286 DMAM_RDATABUS[1]
*287 DMAM_RDATABUS[0]
*288 DMAM_WDATABUS[31]
*289 DMAM_WDATABUS[30]
*290 DMAM_WDATABUS[29]
*291 DMAM_WDATABUS[28]
*292 DMAM_WDATABUS[27]
*293 DMAM_WDATABUS[26]
*294 DMAM_WDATABUS[25]
*295 DMAM_WDATABUS[24]
*296 DMAM_WDATABUS[23]
*297 DMAM_WDATABUS[22]
*298 DMAM_WDATABUS[21]
*299 DMAM_WDATABUS[20]
*300 DMAM_WDATABUS[19]
*301 DMAM_WDATABUS[18]
*302 DMAM_WDATABUS[17]
*303 DMAM_WDATABUS[16]
*304 DMAM_WDATABUS[15]
*305 DMAM_WDATABUS[14]
*306 DMAM_WDATABUS[13]
*307 DMAM_WDATABUS[12]
*308 DMAM_WDATABUS[11]
*309 DMAM_WDATABUS[10]
*310 DMAM_WDATABUS[9]
*311 DMAM_WDATABUS[8]
*312 DMAM_WDATABUS[7]
*313 DMAM_WDATABUS[6]
*314 DMAM_WDATABUS[5]
*315 DMAM_WDATABUS[4]
*316 DMAM_WDATABUS[3]
*317 DMAM_WDATABUS[2]
*318 DMAM_WDATABUS[1]
*319 DMAM_WDATABUS[0]
*320 SRAM_ADDRBUS[10]
*321 SRAM_ADDRBUS[9]
*322 SRAM_ADDRBUS[8]
*323 SRAM_ADDRBUS[7]
*324 SRAM_ADDRBUS[6]
*325 SRAM_ADDRBUS[5]
*326 SRAM_ADDRBUS[4]
*327 SRAM_ADDRBUS[3]
*328 SRAM_ADDRBUS[2]
*329 SRAM_ADDRBUS[1]
*330 SRAM_ADDRBUS[0]
*331 SRAM_RDATABUS[31]
*332 SRAM_RDATABUS[30]
*333 SRAM_RDATABUS[29]
*334 SRAM_RDATABUS[28]
*335 SRAM_RDATABUS[27]
*336 SRAM_RDATABUS[26]
*337 SRAM_RDATABUS[25]
*338 SRAM_RDATABUS[24]
*339 SRAM_RDATABUS[23]
*340 SRAM_RDATABUS[22]
*341 SRAM_RDATABUS[21]
*342 SRAM_RDATABUS[20]
*343 SRAM_RDATABUS[19]
*344 SRAM_RDATABUS[18]
*345 SRAM_RDATABUS[17]
*346 SRAM_RDATABUS[16]
*347 SRAM_RDATABUS[15]
*348 SRAM_RDATABUS[14]
*349 SRAM_RDATABUS[13]
*350 SRAM_RDATABUS[12]
*351 SRAM_RDATABUS[11]
*352 SRAM_RDATABUS[10]
*353 SRAM_RDATABUS[9]
*354 SRAM_RDATABUS[8]
*355 SRAM_RDATABUS[7]
*356 SRAM_RDATABUS[6]
*357 SRAM_RDATABUS[5]
*358 SRAM_RDATABUS[4]
*359 SRAM_RDATABUS[3]
*360 SRAM_RDATABUS[2]
*361 SRAM_RDATABUS[1]
*362 SRAM_RDATABUS[0]
*363 SRAM_WDATABUS[31]
*364 SRAM_WDATABUS[30]
*365 SRAM_WDATABUS[29]
*366 SRAM_WDATABUS[28]
*367 SRAM_WDATABUS[27]
*368 SRAM_WDATABUS[26]
*369 SRAM_WDATABUS[25]
*370 SRAM_WDATABUS[24]
*371 SRAM_WDATABUS[23]
*372 SRAM_WDATABUS[22]
*373 SRAM_WDATABUS[21]
*374 SRAM_WDATABUS[20]
*375 SRAM_WDATABUS[19]
*376 SRAM_WDATABUS[18]
*377 SRAM_WDATABUS[17]
*378 SRAM_WDATABUS[16]
*379 SRAM_WDATABUS[15]
*380 SRAM_WDATABUS[14]
*381 SRAM_WDATABUS[13]
*382 SRAM_WDATABUS[12]
*383 SRAM_WDATABUS[11]
*384 SRAM_WDATABUS[10]
*385 SRAM_WDATABUS[9]
*386 SRAM_WDATABUS[8]
*387 SRAM_WDATABUS[7]
*388 SRAM_WDATABUS[6]
*389 SRAM_WDATABUS[5]
*390 SRAM_WDATABUS[4]
*391 SRAM_WDATABUS[3]
*392 SRAM_WDATABUS[2]
*393 SRAM_WDATABUS[1]
*394 SRAM_WDATABUS[0]
*395 YOUR_ADDRBUS[31]
*396 YOUR_ADDRBUS[30]
*397 YOUR_ADDRBUS[29]
*398 YOUR_ADDRBUS[28]
*399 YOUR_ADDRBUS[27]
*400 YOUR_ADDRBUS[26]
*401 YOUR_ADDRBUS[25]
*402 YOUR_ADDRBUS[24]
*403 YOUR_ADDRBUS[23]
*404 YOUR_ADDRBUS[22]
*405 YOUR_ADDRBUS[21]
*406 YOUR_ADDRBUS[20]
*407 YOUR_ADDRBUS[19]
*408 YOUR_ADDRBUS[18]
*409 YOUR_ADDRBUS[17]
*410 YOUR_ADDRBUS[16]
*411 YOUR_ADDRBUS[15]
*412 YOUR_ADDRBUS[14]
*413 YOUR_ADDRBUS[13]
*414 YOUR_ADDRBUS[12]
*415 YOUR_ADDRBUS[11]
*416 YOUR_ADDRBUS[10]
*417 YOUR_ADDRBUS[9]
*418 YOUR_ADDRBUS[8]
*419 YOUR_ADDRBUS[7]
*420 YOUR_ADDRBUS[6]
*421 YOUR_ADDRBUS[5]
*422 YOUR_ADDRBUS[4]
*423 YOUR_ADDRBUS[3]
*424 YOUR_ADDRBUS[2]
*425 YOUR_ADDRBUS[1]
*426 YOUR_ADDRBUS[0]
*427 YOUR_RDATABUS[31]
*428 YOUR_RDATABUS[30]
*429 YOUR_RDATABUS[29]
*430 YOUR_RDATABUS[28]
*431 YOUR_RDATABUS[27]
*432 YOUR_RDATABUS[26]
*433 YOUR_RDATABUS[25]
*434 YOUR_RDATABUS[24]
*435 YOUR_RDATABUS[23]
*436 YOUR_RDATABUS[22]
*437 YOUR_RDATABUS[21]
*438 YOUR_RDATABUS[20]
*439 YOUR_RDATABUS[19]
*440 YOUR_RDATABUS[18]
*441 YOUR_RDATABUS[17]
*442 YOUR_RDATABUS[16]
*443 YOUR_RDATABUS[15]
*444 YOUR_RDATABUS[14]
*445 YOUR_RDATABUS[13]
*446 YOUR_RDATABUS[12]
*447 YOUR_RDATABUS[11]
*448 YOUR_RDATABUS[10]
*449 YOUR_RDATABUS[9]
*450 YOUR_RDATABUS[8]
*451 YOUR_RDATABUS[7]
*452 YOUR_RDATABUS[6]
*453 YOUR_RDATABUS[5]
*454 YOUR_RDATABUS[4]
*455 YOUR_RDATABUS[3]
*456 YOUR_RDATABUS[2]
*457 YOUR_RDATABUS[1]
*458 YOUR_RDATABUS[0]
*459 YOUR_WDATABUS[31]
*460 YOUR_WDATABUS[30]
*461 YOUR_WDATABUS[29]
*462 YOUR_WDATABUS[28]
*463 YOUR_WDATABUS[27]
*464 YOUR_WDATABUS[26]
*465 YOUR_WDATABUS[25]
*466 YOUR_WDATABUS[24]
*467 YOUR_WDATABUS[23]
*468 YOUR_WDATABUS[22]
*469 YOUR_WDATABUS[21]
*470 YOUR_WDATABUS[20]
*471 YOUR_WDATABUS[19]
*472 YOUR_WDATABUS[18]
*473 YOUR_WDATABUS[17]
*474 YOUR_WDATABUS[16]
*475 YOUR_WDATABUS[15]
*476 YOUR_WDATABUS[14]
*477 YOUR_WDATABUS[13]
*478 YOUR_WDATABUS[12]
*479 YOUR_WDATABUS[11]
*480 YOUR_WDATABUS[10]
*481 YOUR_WDATABUS[9]
*482 YOUR_WDATABUS[8]
*483 YOUR_WDATABUS[7]
*484 YOUR_WDATABUS[6]
*485 YOUR_WDATABUS[5]
*486 YOUR_WDATABUS[4]
*487 YOUR_WDATABUS[3]
*488 YOUR_WDATABUS[2]
*489 YOUR_WDATABUS[1]
*490 YOUR_WDATABUS[0]
*491 DMAS_ADDRBUS[3]
*492 DMAS_ADDRBUS[2]
*493 DMAS_ADDRBUS[1]
*494 DMAS_ADDRBUS[0]
*495 DMAS_RDATABUS[31]
*496 DMAS_RDATABUS[30]
*497 DMAS_RDATABUS[29]
*498 DMAS_RDATABUS[28]
*499 DMAS_RDATABUS[27]
*500 DMAS_RDATABUS[26]
*501 DMAS_RDATABUS[25]
*502 DMAS_RDATABUS[24]
*503 DMAS_RDATABUS[23]
*504 DMAS_RDATABUS[22]
*505 DMAS_RDATABUS[21]
*506 DMAS_RDATABUS[20]
*507 DMAS_RDATABUS[19]
*508 DMAS_RDATABUS[18]
*509 DMAS_RDATABUS[17]
*510 DMAS_RDATABUS[16]
*511 DMAS_RDATABUS[15]
*512 DMAS_RDATABUS[14]
*513 DMAS_RDATABUS[13]
*514 DMAS_RDATABUS[12]
*515 DMAS_RDATABUS[11]
*516 DMAS_RDATABUS[10]
*517 DMAS_RDATABUS[9]
*518 DMAS_RDATABUS[8]
*519 DMAS_RDATABUS[7]
*520 DMAS_RDATABUS[6]
*521 DMAS_RDATABUS[5]
*522 DMAS_RDATABUS[4]
*523 DMAS_RDATABUS[3]
*524 DMAS_RDATABUS[2]
*525 DMAS_RDATABUS[1]
*526 DMAS_RDATABUS[0]
*527 DMAS_WDATABUS[31]
*528 DMAS_WDATABUS[30]
*529 DMAS_WDATABUS[29]
*530 DMAS_WDATABUS[28]
*531 DMAS_WDATABUS[27]
*532 DMAS_WDATABUS[26]
*533 DMAS_WDATABUS[25]
*534 DMAS_WDATABUS[24]
*535 DMAS_WDATABUS[23]
*536 DMAS_WDATABUS[22]
*537 DMAS_WDATABUS[21]
*538 DMAS_WDATABUS[20]
*539 DMAS_WDATABUS[19]
*540 DMAS_WDATABUS[18]
*541 DMAS_WDATABUS[17]
*542 DMAS_WDATABUS[16]
*543 DMAS_WDATABUS[15]
*544 DMAS_WDATABUS[14]
*545 DMAS_WDATABUS[13]
*546 DMAS_WDATABUS[12]
*547 DMAS_WDATABUS[11]
*548 DMAS_WDATABUS[10]
*549 DMAS_WDATABUS[9]
*550 DMAS_WDATABUS[8]
*551 DMAS_WDATABUS[7]
*552 DMAS_WDATABUS[6]
*553 DMAS_WDATABUS[5]
*554 DMAS_WDATABUS[4]
*555 DMAS_WDATABUS[3]
*556 DMAS_WDATABUS[2]
*557 DMAS_WDATABUS[1]
*558 DMAS_WDATABUS[0]
*559 CNT_ADDRBUS[7]
*560 CNT_ADDRBUS[6]
*561 CNT_ADDRBUS[5]
*562 CNT_ADDRBUS[4]
*563 CNT_ADDRBUS[1]
*564 CNT_ADDRBUS[0]
*565 CNT_RDATABUS[31]
*566 CNT_RDATABUS[30]
*567 CNT_RDATABUS[29]
*568 CNT_RDATABUS[28]
*569 CNT_RDATABUS[27]
*570 CNT_RDATABUS[26]
*571 CNT_RDATABUS[25]
*572 CNT_RDATABUS[24]
*573 CNT_RDATABUS[23]
*574 CNT_RDATABUS[22]
*575 CNT_RDATABUS[21]
*576 CNT_RDATABUS[20]
*577 CNT_RDATABUS[19]
*578 CNT_RDATABUS[18]
*579 CNT_RDATABUS[17]
*580 CNT_RDATABUS[16]
*581 CNT_RDATABUS[15]
*582 CNT_RDATABUS[14]
*583 CNT_RDATABUS[13]
*584 CNT_RDATABUS[12]
*585 CNT_RDATABUS[11]
*586 CNT_RDATABUS[10]
*587 CNT_RDATABUS[9]
*588 CNT_RDATABUS[8]
*589 CNT_RDATABUS[7]
*590 CNT_RDATABUS[6]
*591 CNT_RDATABUS[5]
*592 CNT_RDATABUS[4]
*593 CNT_RDATABUS[3]
*594 CNT_RDATABUS[2]
*595 CNT_RDATABUS[1]
*596 CNT_RDATABUS[0]
*597 CNT_WDATABUS[31]
*598 CNT_WDATABUS[30]
*599 CNT_WDATABUS[29]
*600 CNT_WDATABUS[28]
*601 CNT_WDATABUS[27]
*602 CNT_WDATABUS[26]
*603 CNT_WDATABUS[25]
*604 CNT_WDATABUS[24]
*605 CNT_WDATABUS[23]
*606 CNT_WDATABUS[22]
*607 CNT_WDATABUS[21]
*608 CNT_WDATABUS[20]
*609 CNT_WDATABUS[19]
*610 CNT_WDATABUS[18]
*611 CNT_WDATABUS[17]
*612 CNT_WDATABUS[16]
*613 CNT_WDATABUS[15]
*614 CNT_WDATABUS[14]
*615 CNT_WDATABUS[13]
*616 CNT_WDATABUS[12]
*617 CNT_WDATABUS[11]
*618 CNT_WDATABUS[10]
*619 CNT_WDATABUS[9]
*620 CNT_WDATABUS[8]
*621 CNT_WDATABUS[7]
*622 CNT_WDATABUS[6]
*623 CNT_WDATABUS[5]
*624 CNT_WDATABUS[4]
*625 CNT_WDATABUS[3]
*626 CNT_WDATABUS[2]
*627 CNT_WDATABUS[1]
*628 CNT_WDATABUS[0]
*629 SYNOPSYS_UNCONNECTED__21
*630 SYNOPSYS_UNCONNECTED__49
*631 My_bus/n22
*632 My_bus/n25
*633 My_bus/n28
*634 My_bus/n30
*635 My_bus/n34
*636 My_bus/n250
*637 My_bus/n251
*638 My_bus/n252
*639 My_bus/n253
*640 My_bus/n254
*641 My_bus/n255
*642 My_bus/n256
*643 My_bus/n16
*644 My_bus/n17
*645 My_bus/n18
*646 My_bus/n19
*647 My_bus/n20
*648 My_bus/n21
*649 My_bus/n23
*650 My_bus/n24
*651 My_bus/n26
*652 My_bus/n27
*653 My_bus/n29
*654 My_bus/n31
*655 My_bus/n33
*656 My_bus/n35
*657 My_bus/n36
*658 My_bus/n37
*659 My_bus/n38
*660 My_bus/n39
*661 My_bus/n40
*662 My_bus/n41
*663 My_bus/n42
*664 My_bus/n43
*665 My_bus/n44
*666 My_bus/n45
*667 My_bus/n46
*668 My_bus/n47
*669 My_bus/n48
*670 My_bus/n49
*671 My_bus/n50
*672 My_bus/n51
*673 My_bus/n52
*674 My_bus/n53
*675 My_bus/n54
*676 My_bus/n55
*677 My_bus/n56
*678 My_bus/n57
*679 My_bus/n58
*680 My_bus/n59
*681 My_bus/n60
*682 My_bus/n61
*683 My_bus/n62
*684 My_bus/n63
*685 My_bus/n64
*686 My_bus/n65
*687 My_bus/n66
*688 My_bus/n67
*689 My_bus/n68
*690 My_bus/n69
*691 My_bus/n70
*692 My_bus/n71
*693 My_bus/n72
*694 My_bus/n73
*695 My_bus/n74
*696 My_bus/n75
*697 My_bus/n76
*698 My_bus/n77
*699 My_bus/n78
*700 My_bus/n79
*701 My_bus/n80
*702 My_bus/n81
*703 My_bus/n82
*704 My_bus/n83
*705 My_bus/n84
*706 My_bus/n85
*707 My_bus/n86
*708 My_bus/n87
*709 My_bus/n88
*710 My_bus/n89
*711 My_bus/n90
*712 My_bus/n91
*713 My_bus/n92
*714 My_bus/n93
*715 My_bus/n94
*716 My_bus/n95
*717 My_bus/n96
*718 My_bus/n97
*719 My_bus/n98
*720 My_bus/n99
*721 My_bus/n100
*722 My_bus/n101
*723 My_bus/n102
*724 My_bus/n103
*725 My_bus/n104
*726 My_bus/n105
*727 My_bus/n106
*728 My_bus/n107
*729 My_bus/n108
*730 My_bus/n109
*731 My_bus/n110
*732 My_bus/n111
*733 My_bus/n112
*734 My_bus/n113
*735 My_bus/n114
*736 My_bus/n115
*737 My_bus/n116
*738 My_bus/n117
*739 My_bus/n118
*740 My_bus/n119
*741 My_bus/n120
*742 My_bus/n121
*743 My_bus/n122
*744 My_bus/n123
*745 My_bus/n124
*746 My_bus/n125
*747 My_bus/n126
*748 My_bus/n127
*749 My_bus/n128
*750 My_bus/n129
*751 My_bus/n130
*752 My_bus/n131
*753 My_bus/n132
*754 My_bus/n133
*755 My_bus/n134
*756 My_bus/n135
*757 My_bus/n136
*758 My_bus/n137
*759 My_bus/n138
*760 My_bus/n139
*761 My_bus/n140
*762 My_bus/n141
*763 My_bus/n142
*764 My_bus/n143
*765 My_bus/n144
*766 My_bus/n145
*767 My_bus/n146
*768 My_bus/n147
*769 My_bus/n148
*770 My_bus/n149
*771 My_bus/n150
*772 My_bus/n151
*773 My_bus/n152
*774 My_bus/n153
*775 My_bus/n154
*776 My_bus/n155
*777 My_bus/n156
*778 My_bus/n157
*779 My_bus/n158
*780 My_bus/n159
*781 My_bus/n160
*782 My_bus/n161
*783 My_bus/n162
*784 My_bus/n163
*785 My_bus/n164
*786 My_bus/n165
*787 My_bus/n166
*788 My_bus/n167
*789 My_bus/n168
*790 My_bus/n169
*791 My_bus/n170
*792 My_bus/n171
*793 My_bus/n172
*794 My_bus/n173
*795 My_bus/n174
*796 My_bus/n175
*797 My_bus/n176
*798 My_bus/n177
*799 My_bus/n178
*800 My_bus/n179
*801 My_bus/n180
*802 My_bus/n181
*803 My_bus/n182
*804 My_bus/n183
*805 My_bus/n184
*806 My_bus/n185
*807 My_bus/n186
*808 My_bus/n187
*809 My_bus/n188
*810 My_bus/n189
*811 My_bus/n190
*812 My_bus/n191
*813 My_bus/n192
*814 My_bus/n193
*815 My_bus/n194
*816 My_bus/n195
*817 My_bus/n196
*818 My_bus/n197
*819 My_bus/n198
*820 My_bus/n199
*821 My_bus/n200
*822 My_bus/n201
*823 My_bus/n202
*824 My_bus/n203
*825 My_bus/n204
*826 My_bus/n205
*827 My_bus/n206
*828 My_bus/n207
*829 My_bus/n208
*830 My_bus/n209
*831 My_bus/n210
*832 My_bus/n211
*833 My_bus/n212
*834 My_bus/n213
*835 My_bus/n214
*836 My_bus/n215
*837 My_bus/n216
*838 My_bus/n217
*839 My_bus/n218
*840 My_bus/n219
*841 My_bus/n220
*842 My_bus/n221
*843 My_bus/n222
*844 My_bus/n223
*845 My_bus/n224
*846 My_bus/n225
*847 My_bus/n226
*848 My_bus/n227
*849 My_bus/n228
*850 My_bus/n229
*851 My_bus/n230
*852 My_bus/n231
*853 My_bus/n232
*854 My_bus/n233
*855 My_bus/n234
*856 My_bus/n235
*857 My_bus/n236
*858 My_bus/n237
*859 My_bus/n238
*860 My_bus/n239
*861 My_bus/n240
*862 My_bus/n241
*863 My_bus/n242
*864 My_bus/n243
*865 My_bus/n244
*866 My_bus/n245
*867 My_bus/n246
*868 My_bus/n247
*869 My_bus/n248
*870 My_bus/n249
*871 My_bus/n257
*872 My_bus/n258
*873 My_bus/n259
*874 My_bus/n260
*875 My_bus/n261
*876 My_bus/n262
*877 My_bus/n263
*878 My_bus/n264
*879 My_bus/n265
*880 My_bus/n266
*881 My_bus/n267
*882 My_bus/n268
*883 My_bus/n269
*884 My_bus/n272
*885 My_bus/n273
*886 My_bus/n274
*887 My_bus/n275
*888 My_bus/n276
*889 My_bus/n277
*890 My_bus/n278
*891 My_bus/n279
*892 My_bus/n280
*893 My_bus/n281
*894 My_bus/n282
*895 My_bus/n283
*896 My_bus/n284
*897 My_bus/n285
*898 My_bus/n286
*899 My_bus/n287
*900 My_bus/n288
*901 My_bus/n289
*902 My_bus/n290
*903 My_bus/n291
*904 My_bus/n292
*905 My_bus/n293
*906 My_bus/n294
*907 My_bus/n295
*908 My_bus/n296
*909 My_bus/n297
*910 My_bus/n298
*911 My_bus/n299
*912 My_bus/n300
*913 My_bus/n301
*914 My_bus/n302
*915 My_bus/n303
*916 My_bus/n304
*917 My_bus/n305
*918 My_bus/n306
*919 My_bus/n307
*920 My_bus/n308
*921 My_bus/n309
*922 My_bus/n310
*923 My_bus/n311
*924 My_bus/n312
*925 My_bus/n313
*926 My_bus/n314
*927 My_bus/n315
*928 My_bus/n316
*929 My_bus/n317
*930 My_bus/n318
*931 My_bus/n319
*932 My_bus/n320
*933 My_bus/n321
*934 My_bus/n322
*935 My_bus/n323
*936 My_DMA/N34
*937 My_DMA/N40
*938 My_DMA/N41
*939 My_DMA/N42
*940 My_DMA/N43
*941 My_DMA/N44
*942 My_DMA/N45
*943 My_DMA/N46
*944 My_DMA/N47
*945 My_DMA/N48
*946 My_DMA/N49
*947 My_DMA/N50
*948 My_DMA/N51
*949 My_DMA/N52
*950 My_DMA/N53
*951 My_DMA/N54
*952 My_DMA/N55
*953 My_DMA/N56
*954 My_DMA/N57
*955 My_DMA/N58
*956 My_DMA/N59
*957 My_DMA/N60
*958 My_DMA/N61
*959 My_DMA/N62
*960 My_DMA/N63
*961 My_DMA/N64
*962 My_DMA/N65
*963 My_DMA/N66
*964 My_DMA/N67
*965 My_DMA/N68
*966 My_DMA/N69
*967 My_DMA/N70
*968 My_DMA/N71
*969 My_DMA/N72
*970 My_DMA/N73
*971 My_DMA/N74
*972 My_DMA/N75
*973 My_DMA/N76
*974 My_DMA/N77
*975 My_DMA/N78
*976 My_DMA/N79
*977 My_DMA/N80
*978 My_DMA/N81
*979 My_DMA/N82
*980 My_DMA/N83
*981 My_DMA/N84
*982 My_DMA/N85
*983 My_DMA/N86
*984 My_DMA/N87
*985 My_DMA/N88
*986 My_DMA/N89
*987 My_DMA/N90
*988 My_DMA/N91
*989 My_DMA/N92
*990 My_DMA/N93
*991 My_DMA/N94
*992 My_DMA/N95
*993 My_DMA/N96
*994 My_DMA/N97
*995 My_DMA/N98
*996 My_DMA/N99
*997 My_DMA/N100
*998 My_DMA/N101
*999 My_DMA/N102
*1000 My_DMA/N103
*1001 My_DMA/N105
*1002 My_DMA/N106
*1003 My_DMA/N107
*1004 My_DMA/N108
*1005 My_DMA/N109
*1006 My_DMA/N110
*1007 My_DMA/N111
*1008 My_DMA/N112
*1009 My_DMA/N113
*1010 My_DMA/N114
*1011 My_DMA/N115
*1012 My_DMA/N116
*1013 My_DMA/N117
*1014 My_DMA/N118
*1015 My_DMA/N119
*1016 My_DMA/N120
*1017 My_DMA/N121
*1018 My_DMA/N122
*1019 My_DMA/N123
*1020 My_DMA/N124
*1021 My_DMA/N125
*1022 My_DMA/N126
*1023 My_DMA/N127
*1024 My_DMA/N128
*1025 My_DMA/N129
*1026 My_DMA/N130
*1027 My_DMA/N131
*1028 My_DMA/N132
*1029 My_DMA/N133
*1030 My_DMA/N134
*1031 My_DMA/N135
*1032 My_DMA/N136
*1033 My_DMA/N277
*1034 My_DMA/N278
*1035 My_DMA/N724
*1036 My_DMA/n11
*1037 My_DMA/n12
*1038 My_DMA/n13
*1039 My_DMA/n14
*1040 My_DMA/n15
*1041 My_DMA/n16
*1042 My_DMA/n17
*1043 My_DMA/n18
*1044 My_DMA/n19
*1045 My_DMA/n20
*1046 My_DMA/n21
*1047 My_DMA/n22
*1048 My_DMA/n23
*1049 My_DMA/n24
*1050 My_DMA/n25
*1051 My_DMA/n26
*1052 My_DMA/n27
*1053 My_DMA/n28
*1054 My_DMA/n29
*1055 My_DMA/n30
*1056 My_DMA/n31
*1057 My_DMA/n32
*1058 My_DMA/n33
*1059 My_DMA/n34
*1060 My_DMA/n35
*1061 My_DMA/n36
*1062 My_DMA/n37
*1063 My_DMA/n38
*1064 My_DMA/n39
*1065 My_DMA/n40
*1066 My_DMA/n41
*1067 My_DMA/n42
*1068 My_DMA/n43
*1069 My_DMA/n44
*1070 My_DMA/n45
*1071 My_DMA/n46
*1072 My_DMA/n47
*1073 My_DMA/n48
*1074 My_DMA/n49
*1075 My_DMA/n50
*1076 My_DMA/n51
*1077 My_DMA/n52
*1078 My_DMA/n53
*1079 My_DMA/n54
*1080 My_DMA/n55
*1081 My_DMA/n56
*1082 My_DMA/n57
*1083 My_DMA/n58
*1084 My_DMA/n59
*1085 My_DMA/n60
*1086 My_DMA/n61
*1087 My_DMA/n62
*1088 My_DMA/n63
*1089 My_DMA/n64
*1090 My_DMA/n65
*1091 My_DMA/n66
*1092 My_DMA/n67
*1093 My_DMA/n68
*1094 My_DMA/n69
*1095 My_DMA/n70
*1096 My_DMA/n71
*1097 My_DMA/n72
*1098 My_DMA/n73
*1099 My_DMA/n74
*1100 My_DMA/n75
*1101 My_DMA/n76
*1102 My_DMA/n77
*1103 My_DMA/n78
*1104 My_DMA/n79
*1105 My_DMA/n80
*1106 My_DMA/n81
*1107 My_DMA/n82
*1108 My_DMA/n83
*1109 My_DMA/n84
*1110 My_DMA/n85
*1111 My_DMA/n86
*1112 My_DMA/n87
*1113 My_DMA/n88
*1114 My_DMA/n89
*1115 My_DMA/n90
*1116 My_DMA/n91
*1117 My_DMA/n92
*1118 My_DMA/n93
*1119 My_DMA/n94
*1120 My_DMA/n95
*1121 My_DMA/n96
*1122 My_DMA/n97
*1123 My_DMA/n98
*1124 My_DMA/n99
*1125 My_DMA/n100
*1126 My_DMA/n101
*1127 My_DMA/n102
*1128 My_DMA/n103
*1129 My_DMA/n104
*1130 My_DMA/n105
*1131 My_DMA/n106
*1132 My_DMA/n107
*1133 My_DMA/n108
*1134 My_DMA/n109
*1135 My_DMA/n110
*1136 My_DMA/n111
*1137 My_DMA/n112
*1138 My_DMA/n113
*1139 My_DMA/n114
*1140 My_DMA/n115
*1141 My_DMA/n116
*1142 My_DMA/n117
*1143 My_DMA/n118
*1144 My_DMA/n119
*1145 My_DMA/n120
*1146 My_DMA/n121
*1147 My_DMA/n122
*1148 My_DMA/n123
*1149 My_DMA/n124
*1150 My_DMA/n125
*1151 My_DMA/n126
*1152 My_DMA/n127
*1153 My_DMA/n128
*1154 My_DMA/n129
*1155 My_DMA/n130
*1156 My_DMA/n131
*1157 My_DMA/n132
*1158 My_DMA/n133
*1159 My_DMA/n134
*1160 My_DMA/n135
*1161 My_DMA/n136
*1162 My_DMA/n137
*1163 My_DMA/n138
*1164 My_DMA/n139
*1165 My_DMA/n140
*1166 My_DMA/n141
*1167 My_DMA/n142
*1168 My_DMA/n143
*1169 My_DMA/n144
*1170 My_DMA/n145
*1171 My_DMA/n146
*1172 My_DMA/n147
*1173 My_DMA/n148
*1174 My_DMA/n149
*1175 My_DMA/n150
*1176 My_DMA/n151
*1177 My_DMA/n152
*1178 My_DMA/n153
*1179 My_DMA/n154
*1180 My_DMA/n155
*1181 My_DMA/n156
*1182 My_DMA/n157
*1183 My_DMA/n158
*1184 My_DMA/n159
*1185 My_DMA/n160
*1186 My_DMA/n161
*1187 My_DMA/n162
*1188 My_DMA/n163
*1189 My_DMA/n164
*1190 My_DMA/n165
*1191 My_DMA/n166
*1192 My_DMA/n167
*1193 My_DMA/n168
*1194 My_DMA/n169
*1195 My_DMA/n170
*1196 My_DMA/n171
*1197 My_DMA/n172
*1198 My_DMA/n173
*1199 My_DMA/n174
*1200 My_DMA/n175
*1201 My_DMA/n176
*1202 My_DMA/n177
*1203 My_DMA/n178
*1204 My_DMA/n179
*1205 My_DMA/n180
*1206 My_DMA/n181
*1207 My_DMA/n182
*1208 My_DMA/n183
*1209 My_DMA/n184
*1210 My_DMA/n185
*1211 My_DMA/n186
*1212 My_DMA/n187
*1213 My_DMA/n188
*1214 My_DMA/n189
*1215 My_DMA/n190
*1216 My_DMA/n191
*1217 My_DMA/n192
*1218 My_DMA/n193
*1219 My_DMA/n194
*1220 My_DMA/n195
*1221 My_DMA/n196
*1222 My_DMA/n197
*1223 My_DMA/n198
*1224 My_DMA/n199
*1225 My_DMA/n200
*1226 My_DMA/n201
*1227 My_DMA/n202
*1228 My_DMA/n203
*1229 My_DMA/n204
*1230 My_DMA/n205
*1231 My_DMA/n206
*1232 My_DMA/n207
*1233 My_DMA/n208
*1234 My_DMA/n209
*1235 My_DMA/n210
*1236 My_DMA/n211
*1237 My_DMA/n212
*1238 My_DMA/n213
*1239 My_DMA/n214
*1240 My_DMA/n215
*1241 My_DMA/n216
*1242 My_DMA/n217
*1243 My_DMA/n218
*1244 My_DMA/n219
*1245 My_DMA/n220
*1246 My_DMA/n221
*1247 My_DMA/n222
*1248 My_DMA/n223
*1249 My_DMA/n224
*1250 My_DMA/n225
*1251 My_DMA/n226
*1252 My_DMA/n227
*1253 My_DMA/n228
*1254 My_DMA/n229
*1255 My_DMA/n230
*1256 My_DMA/n231
*1257 My_DMA/n232
*1258 My_DMA/n233
*1259 My_DMA/n234
*1260 My_DMA/n235
*1261 My_DMA/n236
*1262 My_DMA/n237
*1263 My_DMA/n238
*1264 My_DMA/n239
*1265 My_DMA/n240
*1266 My_DMA/n241
*1267 My_DMA/n242
*1268 My_DMA/n243
*1269 My_DMA/n244
*1270 My_DMA/n245
*1271 My_DMA/n246
*1272 My_DMA/n247
*1273 My_DMA/n248
*1274 My_DMA/n249
*1275 My_DMA/n250
*1276 My_DMA/n251
*1277 My_DMA/n252
*1278 My_DMA/n253
*1279 My_DMA/n254
*1280 My_DMA/n255
*1281 My_DMA/n256
*1282 My_DMA/n257
*1283 My_DMA/n258
*1284 My_DMA/n259
*1285 My_DMA/n260
*1286 My_DMA/n261
*1287 My_DMA/n262
*1288 My_DMA/n263
*1289 My_DMA/n264
*1290 My_DMA/n265
*1291 My_DMA/n266
*1292 My_DMA/n267
*1293 My_DMA/n268
*1294 My_DMA/n269
*1295 My_DMA/n270
*1296 My_DMA/n271
*1297 My_DMA/n272
*1298 My_DMA/n273
*1299 My_DMA/n274
*1300 My_DMA/n275
*1301 My_DMA/n276
*1302 My_DMA/n277
*1303 My_DMA/n278
*1304 My_DMA/n279
*1305 My_DMA/n280
*1306 My_DMA/n281
*1307 My_DMA/n282
*1308 My_DMA/n283
*1309 My_DMA/n284
*1310 My_DMA/n285
*1311 My_DMA/n286
*1312 My_DMA/n287
*1313 My_DMA/n288
*1314 My_DMA/n289
*1315 My_DMA/n290
*1316 My_DMA/n291
*1317 My_DMA/n292
*1318 My_DMA/n293
*1319 My_DMA/n294
*1320 My_DMA/n295
*1321 My_DMA/n296
*1322 My_DMA/n297
*1323 My_DMA/n298
*1324 My_DMA/n299
*1325 My_DMA/n300
*1326 My_DMA/n301
*1327 My_DMA/n302
*1328 My_DMA/n303
*1329 My_DMA/n304
*1330 My_DMA/n305
*1331 My_DMA/n306
*1332 My_DMA/n307
*1333 My_DMA/n308
*1334 My_DMA/n309
*1335 My_DMA/n310
*1336 My_DMA/n311
*1337 My_DMA/n312
*1338 My_DMA/n313
*1339 My_DMA/n314
*1340 My_DMA/n315
*1341 My_DMA/n316
*1342 My_DMA/n317
*1343 My_DMA/n318
*1344 My_DMA/n319
*1345 My_DMA/n320
*1346 My_DMA/n321
*1347 My_DMA/n322
*1348 My_DMA/n323
*1349 My_DMA/n324
*1350 My_DMA/n325
*1351 My_DMA/n326
*1352 My_DMA/n327
*1353 My_DMA/n328
*1354 My_DMA/n329
*1355 My_DMA/n330
*1356 My_DMA/n331
*1357 My_DMA/n332
*1358 My_DMA/n333
*1359 My_DMA/n334
*1360 My_DMA/n335
*1361 My_DMA/n336
*1362 My_DMA/n337
*1363 My_DMA/n338
*1364 My_DMA/n339
*1365 My_DMA/n340
*1366 My_DMA/n341
*1367 My_DMA/n342
*1368 My_DMA/n343
*1369 My_DMA/n344
*1370 My_DMA/n345
*1371 My_DMA/n346
*1372 My_DMA/n347
*1373 My_DMA/n348
*1374 My_DMA/n349
*1375 My_DMA/n350
*1376 My_DMA/n351
*1377 My_DMA/n352
*1378 My_DMA/n353
*1379 My_DMA/n354
*1380 My_DMA/n355
*1381 My_DMA/n356
*1382 My_DMA/n357
*1383 My_DMA/n358
*1384 My_DMA/n359
*1385 My_DMA/n360
*1386 My_DMA/n361
*1387 My_DMA/n362
*1388 My_DMA/n363
*1389 My_DMA/n364
*1390 My_DMA/n365
*1391 My_DMA/n366
*1392 My_DMA/n367
*1393 My_DMA/n368
*1394 My_DMA/n369
*1395 My_DMA/n370
*1396 My_DMA/n371
*1397 My_DMA/n372
*1398 My_DMA/n373
*1399 My_DMA/n374
*1400 My_DMA/n375
*1401 My_DMA/n376
*1402 My_DMA/n377
*1403 My_DMA/n378
*1404 My_DMA/n379
*1405 My_DMA/n380
*1406 My_DMA/n381
*1407 My_DMA/n382
*1408 My_DMA/n383
*1409 My_DMA/n384
*1410 My_DMA/n385
*1411 My_DMA/n386
*1412 My_DMA/n387
*1413 My_DMA/n388
*1414 My_DMA/n389
*1415 My_DMA/n390
*1416 My_DMA/n391
*1417 My_DMA/n392
*1418 My_DMA/n393
*1419 My_DMA/n394
*1420 My_DMA/n395
*1421 My_DMA/n396
*1422 My_DMA/n397
*1423 My_DMA/n398
*1424 My_DMA/n399
*1425 My_DMA/n400
*1426 My_DMA/n401
*1427 My_DMA/n402
*1428 My_DMA/n403
*1429 My_DMA/n404
*1430 My_DMA/n405
*1431 My_DMA/n406
*1432 My_DMA/n407
*1433 My_DMA/n408
*1434 My_DMA/n409
*1435 My_DMA/n410
*1436 My_DMA/n411
*1437 My_DMA/n412
*1438 My_DMA/n413
*1439 My_DMA/n414
*1440 My_DMA/n415
*1441 My_DMA/n416
*1442 My_DMA/n417
*1443 My_DMA/n418
*1444 My_DMA/n419
*1445 My_DMA/n420
*1446 My_DMA/n421
*1447 My_DMA/n422
*1448 My_DMA/n423
*1449 My_DMA/n424
*1450 My_DMA/n425
*1451 My_DMA/n426
*1452 My_DMA/n427
*1453 My_DMA/n428
*1454 My_DMA/n429
*1455 My_DMA/n430
*1456 My_DMA/n431
*1457 My_DMA/n432
*1458 My_DMA/n433
*1459 My_DMA/n434
*1460 My_DMA/n435
*1461 My_DMA/n436
*1462 My_DMA/n437
*1463 My_DMA/n438
*1464 My_DMA/n439
*1465 My_DMA/n440
*1466 My_DMA/n441
*1467 My_DMA/n442
*1468 My_DMA/n443
*1469 My_DMA/n444
*1470 My_DMA/n445
*1471 My_DMA/n446
*1472 My_DMA/n447
*1473 My_DMA/n448
*1474 My_DMA/n449
*1475 My_DMA/n450
*1476 My_DMA/n451
*1477 My_DMA/n452
*1478 My_DMA/n453
*1479 My_DMA/n454
*1480 My_DMA/n455
*1481 My_DMA/n456
*1482 My_DMA/n457
*1483 My_DMA/n458
*1484 My_DMA/n459
*1485 My_DMA/n460
*1486 My_DMA/n461
*1487 My_DMA/n462
*1488 My_DMA/n463
*1489 My_DMA/n464
*1490 My_DMA/n465
*1491 My_DMA/n466
*1492 My_DMA/n467
*1493 My_DMA/n468
*1494 My_DMA/n469
*1495 My_DMA/n470
*1496 My_DMA/n471
*1497 My_DMA/n472
*1498 My_DMA/n473
*1499 My_DMA/n474
*1500 My_DMA/n475
*1501 My_DMA/n476
*1502 My_DMA/n477
*1503 My_DMA/n478
*1504 My_DMA/n479
*1505 My_DMA/n480
*1506 My_DMA/n481
*1507 My_DMA/n482
*1508 My_DMA/n483
*1509 My_DMA/n484
*1510 My_DMA/n485